Version 4
SHEET 1 880 680
WIRE -1568 -496 -1648 -496
WIRE -1648 -464 -1648 -496
WIRE -1568 -464 -1568 -496
WIRE -1536 -464 -1568 -464
WIRE -752 -464 -1424 -464
WIRE -432 -464 -752 -464
WIRE -160 -464 -432 -464
WIRE -432 -432 -432 -464
WIRE -160 -432 -160 -464
WIRE -1536 -400 -1568 -400
WIRE -1168 -400 -1424 -400
WIRE -1648 -352 -1648 -384
WIRE -1568 -352 -1568 -400
WIRE -1568 -352 -1648 -352
WIRE -432 -320 -432 -368
WIRE -160 -320 -160 -352
WIRE -160 -320 -432 -320
WIRE -432 -304 -432 -320
WIRE -624 -240 -928 -240
WIRE -496 -240 -624 -240
WIRE -496 -176 -496 -240
WIRE -1168 -160 -1168 -400
WIRE -624 -160 -624 -240
WIRE -752 -48 -752 -464
WIRE -928 -32 -928 -240
WIRE -784 -32 -928 -32
WIRE -624 -16 -624 -96
WIRE -624 -16 -720 -16
WIRE -496 -16 -496 -96
WIRE -496 -16 -624 -16
WIRE -368 -16 -496 -16
WIRE -240 -16 -288 -16
WIRE -160 -16 -240 -16
WIRE -1424 0 -1664 0
WIRE -1168 0 -1168 -80
WIRE -1168 0 -1360 0
WIRE -1056 0 -1168 0
WIRE -784 0 -1056 0
WIRE -784 16 -784 0
WIRE -1168 64 -1168 0
WIRE -1056 64 -1056 0
WIRE -928 64 -928 -32
WIRE -240 80 -240 -16
WIRE -1664 96 -1664 0
WIRE -1664 224 -1664 176
WIRE -1168 224 -1168 128
WIRE -1168 224 -1664 224
WIRE -1056 224 -1056 144
WIRE -1056 224 -1168 224
WIRE -928 224 -928 144
WIRE -928 224 -1056 224
WIRE -752 224 -752 16
WIRE -752 224 -928 224
WIRE -240 224 -240 144
WIRE -240 224 -752 224
WIRE -1168 304 -1168 224
FLAG -1168 304 0
FLAG -432 -304 0
FLAG -160 -16 ADC
SYMBOL cap -1184 64 R0
SYMATTR InstName C1
SYMATTR Value 100n
SYMBOL res -1072 48 R0
SYMATTR InstName R1
SYMATTR Value 100k
SYMBOL res -944 48 R0
SYMATTR InstName R2
SYMATTR Value 1000
SYMBOL OpAmps\\LTC1050 -752 -80 R0
SYMATTR InstName U1
SYMBOL res -272 -32 R90
WINDOW 0 0 56 VBottom 2
WINDOW 3 32 56 VTop 2
SYMATTR InstName R6
SYMATTR Value 1k
SYMBOL cap -256 80 R0
SYMATTR InstName C2
SYMATTR Value 100n
SYMBOL cap -640 -160 R0
SYMATTR InstName C4
SYMATTR Value 1µ
SYMBOL res -512 -192 R0
SYMATTR InstName R3
SYMATTR Value 100k
SYMBOL cap -448 -432 R0
SYMATTR InstName C3
SYMATTR Value 100n
SYMBOL voltage -160 -448 R0
WINDOW 123 24 44 Left 2
WINDOW 39 24 44 Left 2
SYMATTR InstName V1
SYMATTR Value 5
SYMBOL Schéma_simulation_capteur -1488 -416 R0
SYMATTR InstName X1
SYMBOL voltage -1648 -480 R0
WINDOW 3 -318 52 Left 2
WINDOW 123 -116 16 Left 2
WINDOW 39 0 0 Left 0
SYMATTR Value PULSE(0 1 0.2 0.1 0.1 2)
SYMATTR Value2 AC 1 0
SYMATTR InstName V2
SYMBOL res -1184 -176 R0
SYMATTR InstName R5
SYMATTR Value 10k
SYMBOL cap -1360 -16 R90
WINDOW 0 0 32 VBottom 2
WINDOW 3 32 32 VTop 2
SYMATTR InstName C5
SYMATTR Value 1p
SYMBOL voltage -1664 80 R0
WINDOW 123 0 0 Left 0
WINDOW 39 0 0 Left 0
SYMATTR InstName V3
SYMATTR Value SINE(0 325 50)
TEXT -1664 -240 Left 2 !.param C0=200p G0=10n R0=100k
TEXT -1664 -144 Left 2 !;step param R2 100 2.5k 100
TEXT -1664 -192 Left 2 !.ac dec 100 1 1G
